<routes>

  <vType id="passenger" length="5.0" minGap="2.0" maxSpeed="30.0" vClass="passenger">
      <carFollowing-Krauss accel="3.0" decel="5.0" sigma="0" tau="1.64" />
  </vType>
  
  <vType id="bus" length="10.0" minGap="4.0" maxSpeed="15.0" vClass="bus">
      <carFollowing-Krauss accel="2.0" decel="3.0" sigma="0" tau="2.0" />
  </vType>  
  
  <route id="route0" edges="street1 street2" /> 

  <vehicle id="veh0" type="passenger" color="1,0,0" route="route0" depart="0" departSpeed="0" departPos="0" departLane="first" />
  <vehicle id="veh1" type="passenger" color="1,0,0" route="route0" depart="8" departSpeed="0" departPos="0" departLane="first" />
  <vehicle id="veh2" type="passenger" color="1,0,0" route="route0" depart="16" departSpeed="0" departPos="0" departLane="first" />

</routes>
