<?xml version="1.0" encoding="UTF-8"?>

<!-- generated on Mon May 24 18:37:55 2021 by SUMO netconvert Version dev-SVN-rUNKNOWN
<?xml version="1.0" encoding="UTF-8"?>

<configuration xmlns:xsi="http://www.w3.org/2001/XMLSchema-instance" xsi:noNamespaceSchemaLocation="http://sumo.dlr.de/xsd/netconvertConfiguration.xsd">

    <input>
        <sumo-net-file value="example.net.xml"/>
    </input>

    <output>
        <plain-output-prefix value="plain"/>
    </output>

    <processing>
        <no-turnarounds value="true"/>
        <offset.disable-normalization value="true"/>
        <lefthand value="false"/>
        <junctions.corner-detail value="0"/>
    </processing>

</configuration>
-->

<nodes version="0.27" xmlns:xsi="http://www.w3.org/2001/XMLSchema-instance" xsi:noNamespaceSchemaLocation="http://sumo.dlr.de/xsd/nodes_file.xsd">
    <location netOffset="200.00,0.00" convBoundary="0.00,0.00,400.00,0.00" origBoundary="-200.00,0.00,200.00,0.00" projParameter="!"/>

    <node id="1" x="0.00" y="0.00" type="unregulated"/>
    <node id="2" x="200.00" y="0.00" type="priority"/>
    <node id="3" x="400.00" y="0.00" type="unregulated"/>
</nodes>
